<?xml version="1.0" encoding="UTF-8"?>

<!-- generated on Thu Jan  4 21:55:55 2024 by Eclipse SUMO netconvert Version 1.4.0
<configuration xmlns:xsi="http://www.w3.org/2001/XMLSchema-instance" xsi:noNamespaceSchemaLocation="http://sumo.dlr.de/xsd/netconvertConfiguration.xsd">

    <input>
        <node-files value="sumo.nod.xml"/>
        <edge-files value="sumo.edg.xml"/>
    </input>

    <output>
        <output-file value="sumo.net.xml"/>
    </output>

    <building_defaults>
        <default.speed value="3"/>
    </building_defaults>

    <report>
        <aggregate-warnings value="5"/>
    </report>

</configuration>
-->

<net version="1.3" junctionCornerDetail="5" limitTurnSpeed="5.50" xmlns:xsi="http://www.w3.org/2001/XMLSchema-instance" xsi:noNamespaceSchemaLocation="http://sumo.dlr.de/xsd/net_file.xsd">

    <location netOffset="10.00,0.00" convBoundary="0.00,0.00,150.00,90.00" origBoundary="-10.00,0.00,140.00,90.00" projParameter="!"/>

    <edge id=":A01_0" function="internal">
        <lane id=":A01_0_0" index="0" speed="3.00" length="0.16" shape="20.11,1.60 19.95,1.60"/>
    </edge>
    <edge id=":A01_1" function="internal">
        <lane id=":A01_1_0" index="0" speed="3.00" length="0.29" shape="19.83,-1.59 20.11,-1.60"/>
    </edge>
    <edge id=":A02_0" function="internal">
        <lane id=":A02_0_0" index="0" speed="3.00" length="0.10" shape="46.00,1.60 46.00,1.60"/>
    </edge>
    <edge id=":A02_1" function="internal">
        <lane id=":A02_1_0" index="0" speed="3.00" length="0.10" shape="46.00,-1.60 46.00,-1.60"/>
    </edge>
    <edge id=":A03_0" function="internal">
        <lane id=":A03_0_0" index="0" speed="3.00" length="0.16" shape="130.05,1.60 129.89,1.60"/>
    </edge>
    <edge id=":A03_1" function="internal">
        <lane id=":A03_1_0" index="0" speed="3.00" length="0.29" shape="129.89,-1.60 130.17,-1.59"/>
    </edge>
    <edge id=":B01_0" function="internal">
        <lane id=":B01_0_0" index="0" speed="3.00" length="0.13" shape="131.51,1.67 131.38,1.66"/>
    </edge>
    <edge id=":B01_1" function="internal">
        <lane id=":B01_1_0" index="0" speed="3.00" length="0.38" shape="131.51,-1.54 131.88,-1.51"/>
    </edge>
    <edge id=":B02_0" function="internal">
        <lane id=":B02_0_0" index="0" speed="3.00" length="0.13" shape="132.94,1.84 132.82,1.82"/>
    </edge>
    <edge id=":B02_1" function="internal">
        <lane id=":B02_1_0" index="0" speed="3.00" length="0.38" shape="133.19,-1.36 133.56,-1.30"/>
    </edge>
    <edge id=":B03_0" function="internal">
        <lane id=":B03_0_0" index="0" speed="3.00" length="0.13" shape="134.36,2.13 134.23,2.10"/>
    </edge>
    <edge id=":B03_1" function="internal">
        <lane id=":B03_1_0" index="0" speed="3.00" length="0.38" shape="134.86,-1.04 135.22,-0.95"/>
    </edge>
    <edge id=":B04_0" function="internal">
        <lane id=":B04_0_0" index="0" speed="3.00" length="0.13" shape="135.74,2.52 135.63,2.48"/>
    </edge>
    <edge id=":B04_1" function="internal">
        <lane id=":B04_1_0" index="0" speed="3.00" length="0.38" shape="136.49,-0.60 136.85,-0.48"/>
    </edge>
    <edge id=":B05_0" function="internal">
        <lane id=":B05_0_0" index="0" speed="3.00" length="0.13" shape="137.10,3.03 136.98,2.98"/>
    </edge>
    <edge id=":B05_1" function="internal">
        <lane id=":B05_1_0" index="0" speed="3.00" length="0.38" shape="138.09,-0.02 138.44,0.12"/>
    </edge>
    <edge id=":B06_0" function="internal">
        <lane id=":B06_0_0" index="0" speed="3.00" length="0.13" shape="138.41,3.64 138.30,3.58"/>
    </edge>
    <edge id=":B06_1" function="internal">
        <lane id=":B06_1_0" index="0" speed="3.00" length="0.38" shape="139.64,0.67 139.97,0.85"/>
    </edge>
    <edge id=":B07_0" function="internal">
        <lane id=":B07_0_0" index="0" speed="3.00" length="0.13" shape="139.67,4.35 139.56,4.28"/>
    </edge>
    <edge id=":B07_1" function="internal">
        <lane id=":B07_1_0" index="0" speed="3.00" length="0.38" shape="141.12,1.49 141.44,1.69"/>
    </edge>
    <edge id=":B08_0" function="internal">
        <lane id=":B08_0_0" index="0" speed="3.00" length="0.13" shape="140.86,5.15 140.76,5.08"/>
    </edge>
    <edge id=":B08_1" function="internal">
        <lane id=":B08_1_0" index="0" speed="3.00" length="0.38" shape="142.54,2.42 142.85,2.64"/>
    </edge>
    <edge id=":B09_0" function="internal">
        <lane id=":B09_0_0" index="0" speed="3.00" length="0.13" shape="142.00,6.05 141.90,5.97"/>
    </edge>
    <edge id=":B09_1" function="internal">
        <lane id=":B09_1_0" index="0" speed="3.00" length="0.38" shape="143.88,3.46 144.17,3.70"/>
    </edge>
    <edge id=":B10_0" function="internal">
        <lane id=":B10_0_0" index="0" speed="3.00" length="0.13" shape="143.05,7.04 142.96,6.95"/>
    </edge>
    <edge id=":B10_1" function="internal">
        <lane id=":B10_1_0" index="0" speed="3.00" length="0.38" shape="145.14,4.60 145.40,4.86"/>
    </edge>
    <edge id=":B11_0" function="internal">
        <lane id=":B11_0_0" index="0" speed="3.00" length="0.13" shape="144.03,8.10 143.95,8.00"/>
    </edge>
    <edge id=":B11_1" function="internal">
        <lane id=":B11_1_0" index="0" speed="3.00" length="0.38" shape="146.30,5.83 146.54,6.12"/>
    </edge>
    <edge id=":B12_0" function="internal">
        <lane id=":B12_0_0" index="0" speed="3.00" length="0.13" shape="144.92,9.24 144.85,9.14"/>
    </edge>
    <edge id=":B12_1" function="internal">
        <lane id=":B12_1_0" index="0" speed="3.00" length="0.38" shape="147.36,7.16 147.58,7.46"/>
    </edge>
    <edge id=":B13_0" function="internal">
        <lane id=":B13_0_0" index="0" speed="3.00" length="0.13" shape="145.72,10.44 145.65,10.33"/>
    </edge>
    <edge id=":B13_1" function="internal">
        <lane id=":B13_1_0" index="0" speed="3.00" length="0.38" shape="148.31,8.56 148.51,8.88"/>
    </edge>
    <edge id=":B14_0" function="internal">
        <lane id=":B14_0_0" index="0" speed="3.00" length="0.13" shape="146.42,11.70 146.36,11.59"/>
    </edge>
    <edge id=":B14_1" function="internal">
        <lane id=":B14_1_0" index="0" speed="3.00" length="0.38" shape="149.15,10.03 149.33,10.36"/>
    </edge>
    <edge id=":B15_0" function="internal">
        <lane id=":B15_0_0" index="0" speed="3.00" length="0.13" shape="147.02,13.02 146.97,12.90"/>
    </edge>
    <edge id=":B15_1" function="internal">
        <lane id=":B15_1_0" index="0" speed="3.00" length="0.38" shape="149.88,11.56 150.02,11.91"/>
    </edge>
    <edge id=":B16_0" function="internal">
        <lane id=":B16_0_0" index="0" speed="3.00" length="0.13" shape="147.52,14.38 147.48,14.26"/>
    </edge>
    <edge id=":B16_1" function="internal">
        <lane id=":B16_1_0" index="0" speed="3.00" length="0.38" shape="150.48,13.15 150.60,13.51"/>
    </edge>
    <edge id=":B17_0" function="internal">
        <lane id=":B17_0_0" index="0" speed="3.00" length="0.13" shape="147.90,15.77 147.87,15.64"/>
    </edge>
    <edge id=":B17_1" function="internal">
        <lane id=":B17_1_0" index="0" speed="3.00" length="0.38" shape="150.95,14.78 151.04,15.14"/>
    </edge>
    <edge id=":B18_0" function="internal">
        <lane id=":B18_0_0" index="0" speed="3.00" length="0.13" shape="148.18,17.18 148.16,17.06"/>
    </edge>
    <edge id=":B18_1" function="internal">
        <lane id=":B18_1_0" index="0" speed="3.00" length="0.38" shape="151.30,16.44 151.36,16.81"/>
    </edge>
    <edge id=":B19_0" function="internal">
        <lane id=":B19_0_0" index="0" speed="3.00" length="0.13" shape="148.34,18.62 148.33,18.49"/>
    </edge>
    <edge id=":B19_1" function="internal">
        <lane id=":B19_1_0" index="0" speed="3.00" length="0.38" shape="151.51,18.12 151.54,18.49"/>
    </edge>
    <edge id=":C01_0" function="internal">
        <lane id=":C01_0_0" index="0" speed="3.00" length="0.16" shape="148.40,20.11 148.40,19.95"/>
    </edge>
    <edge id=":C01_1" function="internal">
        <lane id=":C01_1_0" index="0" speed="3.00" length="0.29" shape="151.59,19.83 151.60,20.11"/>
    </edge>
    <edge id=":C02_0" function="internal">
        <lane id=":C02_0_0" index="0" speed="3.00" length="0.29" shape="151.60,69.89 151.59,70.17"/>
    </edge>
    <edge id=":C02_1" function="internal">
        <lane id=":C02_1_0" index="0" speed="3.00" length="0.16" shape="148.40,70.05 148.40,69.89"/>
    </edge>
    <edge id=":D01_0" function="internal">
        <lane id=":D01_0_0" index="0" speed="3.00" length="0.38" shape="151.54,71.51 151.51,71.88"/>
    </edge>
    <edge id=":D01_1" function="internal">
        <lane id=":D01_1_0" index="0" speed="3.00" length="0.13" shape="148.33,71.51 148.34,71.38"/>
    </edge>
    <edge id=":D02_0" function="internal">
        <lane id=":D02_0_0" index="0" speed="3.00" length="0.38" shape="151.36,73.19 151.30,73.56"/>
    </edge>
    <edge id=":D02_1" function="internal">
        <lane id=":D02_1_0" index="0" speed="3.00" length="0.13" shape="148.16,72.94 148.18,72.82"/>
    </edge>
    <edge id=":D03_0" function="internal">
        <lane id=":D03_0_0" index="0" speed="3.00" length="0.38" shape="151.04,74.86 150.95,75.22"/>
    </edge>
    <edge id=":D03_1" function="internal">
        <lane id=":D03_1_0" index="0" speed="3.00" length="0.13" shape="147.87,74.36 147.90,74.23"/>
    </edge>
    <edge id=":D04_0" function="internal">
        <lane id=":D04_0_0" index="0" speed="3.00" length="0.38" shape="150.60,76.49 150.48,76.85"/>
    </edge>
    <edge id=":D04_1" function="internal">
        <lane id=":D04_1_0" index="0" speed="3.00" length="0.13" shape="147.48,75.74 147.52,75.63"/>
    </edge>
    <edge id=":D05_0" function="internal">
        <lane id=":D05_0_0" index="0" speed="3.00" length="0.38" shape="150.02,78.09 149.88,78.44"/>
    </edge>
    <edge id=":D05_1" function="internal">
        <lane id=":D05_1_0" index="0" speed="3.00" length="0.13" shape="146.97,77.10 147.02,76.98"/>
    </edge>
    <edge id=":D06_0" function="internal">
        <lane id=":D06_0_0" index="0" speed="3.00" length="0.38" shape="149.33,79.64 149.15,79.97"/>
    </edge>
    <edge id=":D06_1" function="internal">
        <lane id=":D06_1_0" index="0" speed="3.00" length="0.13" shape="146.36,78.41 146.42,78.30"/>
    </edge>
    <edge id=":D07_0" function="internal">
        <lane id=":D07_0_0" index="0" speed="3.00" length="0.38" shape="148.51,81.12 148.31,81.44"/>
    </edge>
    <edge id=":D07_1" function="internal">
        <lane id=":D07_1_0" index="0" speed="3.00" length="0.13" shape="145.65,79.67 145.72,79.56"/>
    </edge>
    <edge id=":D08_0" function="internal">
        <lane id=":D08_0_0" index="0" speed="3.00" length="0.38" shape="147.58,82.54 147.36,82.85"/>
    </edge>
    <edge id=":D08_1" function="internal">
        <lane id=":D08_1_0" index="0" speed="3.00" length="0.13" shape="144.85,80.86 144.92,80.76"/>
    </edge>
    <edge id=":D09_0" function="internal">
        <lane id=":D09_0_0" index="0" speed="3.00" length="0.38" shape="146.54,83.88 146.30,84.17"/>
    </edge>
    <edge id=":D09_1" function="internal">
        <lane id=":D09_1_0" index="0" speed="3.00" length="0.13" shape="143.95,82.00 144.03,81.90"/>
    </edge>
    <edge id=":D10_0" function="internal">
        <lane id=":D10_0_0" index="0" speed="3.00" length="0.38" shape="145.40,85.14 145.14,85.40"/>
    </edge>
    <edge id=":D10_1" function="internal">
        <lane id=":D10_1_0" index="0" speed="3.00" length="0.13" shape="142.96,83.05 143.05,82.96"/>
    </edge>
    <edge id=":D11_0" function="internal">
        <lane id=":D11_0_0" index="0" speed="3.00" length="0.38" shape="144.17,86.30 143.88,86.54"/>
    </edge>
    <edge id=":D11_1" function="internal">
        <lane id=":D11_1_0" index="0" speed="3.00" length="0.13" shape="141.90,84.03 142.00,83.95"/>
    </edge>
    <edge id=":D12_0" function="internal">
        <lane id=":D12_0_0" index="0" speed="3.00" length="0.38" shape="142.84,87.36 142.54,87.58"/>
    </edge>
    <edge id=":D12_1" function="internal">
        <lane id=":D12_1_0" index="0" speed="3.00" length="0.13" shape="140.76,84.92 140.86,84.85"/>
    </edge>
    <edge id=":D13_0" function="internal">
        <lane id=":D13_0_0" index="0" speed="3.00" length="0.38" shape="141.44,88.31 141.12,88.51"/>
    </edge>
    <edge id=":D13_1" function="internal">
        <lane id=":D13_1_0" index="0" speed="3.00" length="0.13" shape="139.56,85.72 139.67,85.65"/>
    </edge>
    <edge id=":D14_0" function="internal">
        <lane id=":D14_0_0" index="0" speed="3.00" length="0.38" shape="139.97,89.15 139.64,89.33"/>
    </edge>
    <edge id=":D14_1" function="internal">
        <lane id=":D14_1_0" index="0" speed="3.00" length="0.13" shape="138.30,86.42 138.41,86.36"/>
    </edge>
    <edge id=":D15_0" function="internal">
        <lane id=":D15_0_0" index="0" speed="3.00" length="0.38" shape="138.44,89.88 138.09,90.02"/>
    </edge>
    <edge id=":D15_1" function="internal">
        <lane id=":D15_1_0" index="0" speed="3.00" length="0.13" shape="136.98,87.02 137.10,86.97"/>
    </edge>
    <edge id=":D16_0" function="internal">
        <lane id=":D16_0_0" index="0" speed="3.00" length="0.38" shape="136.85,90.48 136.49,90.60"/>
    </edge>
    <edge id=":D16_1" function="internal">
        <lane id=":D16_1_0" index="0" speed="3.00" length="0.13" shape="135.62,87.52 135.74,87.48"/>
    </edge>
    <edge id=":D17_0" function="internal">
        <lane id=":D17_0_0" index="0" speed="3.00" length="0.38" shape="135.22,90.95 134.86,91.04"/>
    </edge>
    <edge id=":D17_1" function="internal">
        <lane id=":D17_1_0" index="0" speed="3.00" length="0.13" shape="134.23,87.90 134.36,87.87"/>
    </edge>
    <edge id=":D18_0" function="internal">
        <lane id=":D18_0_0" index="0" speed="3.00" length="0.38" shape="133.56,91.30 133.19,91.36"/>
    </edge>
    <edge id=":D18_1" function="internal">
        <lane id=":D18_1_0" index="0" speed="3.00" length="0.13" shape="132.82,88.18 132.94,88.16"/>
    </edge>
    <edge id=":D19_0" function="internal">
        <lane id=":D19_0_0" index="0" speed="3.00" length="0.38" shape="131.88,91.51 131.51,91.54"/>
    </edge>
    <edge id=":D19_1" function="internal">
        <lane id=":D19_1_0" index="0" speed="3.00" length="0.13" shape="131.38,88.34 131.51,88.33"/>
    </edge>
    <edge id=":E01_0" function="internal">
        <lane id=":E01_0_0" index="0" speed="3.00" length="0.29" shape="130.17,91.59 129.89,91.60"/>
    </edge>
    <edge id=":E01_1" function="internal">
        <lane id=":E01_1_0" index="0" speed="3.00" length="0.16" shape="129.89,88.40 130.05,88.40"/>
    </edge>
    <edge id=":E02_0" function="internal">
        <lane id=":E02_0_0" index="0" speed="3.00" length="0.29" shape="105.11,91.60 104.83,91.59"/>
    </edge>
    <edge id=":E02_1" function="internal">
        <lane id=":E02_1_0" index="0" speed="3.00" length="0.16" shape="104.95,88.40 105.11,88.40"/>
    </edge>
    <edge id=":F01_0" function="internal">
        <lane id=":F01_0_0" index="0" speed="3.00" length="0.38" shape="103.89,91.56 103.51,91.53"/>
    </edge>
    <edge id=":F01_1" function="internal">
        <lane id=":F01_1_0" index="0" speed="3.00" length="0.13" shape="103.89,88.35 104.01,88.36"/>
    </edge>
    <edge id=":F02_0" function="internal">
        <lane id=":F02_0_0" index="0" speed="3.00" length="0.38" shape="102.59,91.42 102.22,91.36"/>
    </edge>
    <edge id=":F02_1" function="internal">
        <lane id=":F02_1_0" index="0" speed="3.00" length="0.13" shape="102.84,88.22 102.97,88.24"/>
    </edge>
    <edge id=":F03_0" function="internal">
        <lane id=":F03_0_0" index="0" speed="3.00" length="0.38" shape="101.31,91.18 100.94,91.09"/>
    </edge>
    <edge id=":F03_1" function="internal">
        <lane id=":F03_1_0" index="0" speed="3.00" length="0.13" shape="101.81,88.01 101.93,88.04"/>
    </edge>
    <edge id=":F04_0" function="internal">
        <lane id=":F04_0_0" index="0" speed="3.00" length="0.38" shape="100.05,90.84 99.69,90.72"/>
    </edge>
    <edge id=":F04_1" function="internal">
        <lane id=":F04_1_0" index="0" speed="3.00" length="0.13" shape="100.80,87.72 100.92,87.76"/>
    </edge>
    <edge id=":F05_0" function="internal">
        <lane id=":F05_0_0" index="0" speed="3.00" length="0.38" shape="98.82,90.40 98.48,90.26"/>
    </edge>
    <edge id=":F05_1" function="internal">
        <lane id=":F05_1_0" index="0" speed="3.00" length="0.13" shape="99.82,87.35 99.93,87.40"/>
    </edge>
    <edge id=":F06_0" function="internal">
        <lane id=":F06_0_0" index="0" speed="3.00" length="0.38" shape="97.63,89.87 97.30,89.70"/>
    </edge>
    <edge id=":F06_1" function="internal">
        <lane id=":F06_1_0" index="0" speed="3.00" length="0.13" shape="98.86,86.91 98.97,86.96"/>
    </edge>
    <edge id=":F07_0" function="internal">
        <lane id=":F07_0_0" index="0" speed="3.00" length="0.38" shape="96.49,89.25 96.17,89.05"/>
    </edge>
    <edge id=":F07_1" function="internal">
        <lane id=":F07_1_0" index="0" speed="3.00" length="0.13" shape="97.95,86.39 98.05,86.46"/>
    </edge>
    <edge id=":F08_0" function="internal">
        <lane id=":F08_0_0" index="0" speed="3.00" length="0.38" shape="95.40,88.54 95.09,88.31"/>
    </edge>
    <edge id=":F08_1" function="internal">
        <lane id=":F08_1_0" index="0" speed="3.00" length="0.13" shape="97.08,85.80 97.18,85.87"/>
    </edge>
    <edge id=":F09_0" function="internal">
        <lane id=":F09_0_0" index="0" speed="3.00" length="0.38" shape="94.37,87.74 94.08,87.50"/>
    </edge>
    <edge id=":F09_1" function="internal">
        <lane id=":F09_1_0" index="0" speed="3.00" length="0.13" shape="96.25,85.15 96.35,85.23"/>
    </edge>
    <edge id=":F10_0" function="internal">
        <lane id=":F10_0_0" index="0" speed="3.00" length="0.38" shape="93.40,86.87 93.13,86.60"/>
    </edge>
    <edge id=":F10_1" function="internal">
        <lane id=":F10_1_0" index="0" speed="3.00" length="0.13" shape="95.48,84.43 95.57,84.52"/>
    </edge>
    <edge id=":F11_0" function="internal">
        <lane id=":F11_0_0" index="0" speed="3.00" length="0.38" shape="92.50,85.92 92.26,85.63"/>
    </edge>
    <edge id=":F11_1" function="internal">
        <lane id=":F11_1_0" index="0" speed="3.00" length="0.13" shape="94.77,83.65 94.85,83.75"/>
    </edge>
    <edge id=":F12_0" function="internal">
        <lane id=":F12_0_0" index="0" speed="3.00" length="0.38" shape="91.69,84.91 91.46,84.60"/>
    </edge>
    <edge id=":F12_1" function="internal">
        <lane id=":F12_1_0" index="0" speed="3.00" length="0.13" shape="94.13,82.82 94.20,82.92"/>
    </edge>
    <edge id=":F13_0" function="internal">
        <lane id=":F13_0_0" index="0" speed="3.00" length="0.38" shape="90.95,83.83 90.75,83.51"/>
    </edge>
    <edge id=":F13_1" function="internal">
        <lane id=":F13_1_0" index="0" speed="3.00" length="0.13" shape="93.54,81.95 93.61,82.05"/>
    </edge>
    <edge id=":F14_0" function="internal">
        <lane id=":F14_0_0" index="0" speed="3.00" length="0.38" shape="90.30,82.70 90.13,82.37"/>
    </edge>
    <edge id=":F14_1" function="internal">
        <lane id=":F14_1_0" index="0" speed="3.00" length="0.13" shape="93.04,81.03 93.09,81.14"/>
    </edge>
    <edge id=":F15_0" function="internal">
        <lane id=":F15_0_0" index="0" speed="3.00" length="0.38" shape="89.74,81.52 89.60,81.18"/>
    </edge>
    <edge id=":F15_1" function="internal">
        <lane id=":F15_1_0" index="0" speed="3.00" length="0.13" shape="92.60,80.07 92.65,80.18"/>
    </edge>
    <edge id=":F16_0" function="internal">
        <lane id=":F16_0_0" index="0" speed="3.00" length="0.38" shape="89.28,80.31 89.16,79.95"/>
    </edge>
    <edge id=":F16_1" function="internal">
        <lane id=":F16_1_0" index="0" speed="3.00" length="0.13" shape="92.24,79.08 92.28,79.20"/>
    </edge>
    <edge id=":F17_0" function="internal">
        <lane id=":F17_0_0" index="0" speed="3.00" length="0.38" shape="88.91,79.06 88.82,78.69"/>
    </edge>
    <edge id=":F17_1" function="internal">
        <lane id=":F17_1_0" index="0" speed="3.00" length="0.13" shape="91.96,78.07 91.99,78.19"/>
    </edge>
    <edge id=":F18_0" function="internal">
        <lane id=":F18_0_0" index="0" speed="3.00" length="0.38" shape="88.64,77.78 88.58,77.41"/>
    </edge>
    <edge id=":F18_1" function="internal">
        <lane id=":F18_1_0" index="0" speed="3.00" length="0.13" shape="91.76,77.03 91.78,77.16"/>
    </edge>
    <edge id=":F19_0" function="internal">
        <lane id=":F19_0_0" index="0" speed="3.00" length="0.38" shape="88.47,76.49 88.44,76.11"/>
    </edge>
    <edge id=":F19_1" function="internal">
        <lane id=":F19_1_0" index="0" speed="3.00" length="0.13" shape="91.64,75.99 91.65,76.11"/>
    </edge>
    <edge id=":G01_0" function="internal">
        <lane id=":G01_0_0" index="0" speed="3.00" length="0.29" shape="88.41,75.17 88.40,74.89"/>
    </edge>
    <edge id=":G01_1" function="internal">
        <lane id=":G01_1_0" index="0" speed="3.00" length="0.16" shape="91.60,74.89 91.60,75.05"/>
    </edge>
    <edge id=":G02_0" function="internal">
        <lane id=":G02_0_0" index="0" speed="3.00" length="0.29" shape="88.40,35.11 88.41,34.83"/>
    </edge>
    <edge id=":G02_1" function="internal">
        <lane id=":G02_1_0" index="0" speed="3.00" length="0.16" shape="91.60,34.95 91.60,35.11"/>
    </edge>
    <edge id=":H01_0" function="internal">
        <lane id=":H01_0_0" index="0" speed="3.00" length="0.13" shape="91.68,33.10 91.67,33.23"/>
    </edge>
    <edge id=":H01_1" function="internal">
        <lane id=":H01_1_0" index="0" speed="3.00" length="0.38" shape="88.47,33.10 88.50,32.73"/>
    </edge>
    <edge id=":H02_0" function="internal">
        <lane id=":H02_0_0" index="0" speed="3.00" length="0.13" shape="91.90,31.28 91.88,31.40"/>
    </edge>
    <edge id=":H02_1" function="internal">
        <lane id=":H02_1_0" index="0" speed="3.00" length="0.38" shape="88.70,31.03 88.76,30.65"/>
    </edge>
    <edge id=":H03_0" function="internal">
        <lane id=":H03_0_0" index="0" speed="3.00" length="0.13" shape="92.26,29.48 92.24,29.60"/>
    </edge>
    <edge id=":H03_1" function="internal">
        <lane id=":H03_1_0" index="0" speed="3.00" length="0.38" shape="89.10,28.98 89.18,28.61"/>
    </edge>
    <edge id=":H04_0" function="internal">
        <lane id=":H04_0_0" index="0" speed="3.00" length="0.13" shape="92.77,27.71 92.73,27.83"/>
    </edge>
    <edge id=":H04_1" function="internal">
        <lane id=":H04_1_0" index="0" speed="3.00" length="0.38" shape="89.65,26.96 89.77,26.60"/>
    </edge>
    <edge id=":H05_0" function="internal">
        <lane id=":H05_0_0" index="0" speed="3.00" length="0.13" shape="93.41,25.99 93.36,26.10"/>
    </edge>
    <edge id=":H05_1" function="internal">
        <lane id=":H05_1_0" index="0" speed="3.00" length="0.38" shape="90.36,25.00 90.50,24.65"/>
    </edge>
    <edge id=":H06_0" function="internal">
        <lane id=":H06_0_0" index="0" speed="3.00" length="0.13" shape="94.18,24.32 94.13,24.43"/>
    </edge>
    <edge id=":H06_1" function="internal">
        <lane id=":H06_1_0" index="0" speed="3.00" length="0.38" shape="91.22,23.09 91.39,22.76"/>
    </edge>
    <edge id=":H07_0" function="internal">
        <lane id=":H07_0_0" index="0" speed="3.00" length="0.13" shape="95.08,22.72 95.02,22.83"/>
    </edge>
    <edge id=":H07_1" function="internal">
        <lane id=":H07_1_0" index="0" speed="3.00" length="0.38" shape="92.23,21.27 92.42,20.94"/>
    </edge>
    <edge id=":H08_0" function="internal">
        <lane id=":H08_0_0" index="0" speed="3.00" length="0.13" shape="96.11,21.20 96.04,21.30"/>
    </edge>
    <edge id=":H08_1" function="internal">
        <lane id=":H08_1_0" index="0" speed="3.00" length="0.38" shape="93.37,19.52 93.60,19.22"/>
    </edge>
    <edge id=":H09_0" function="internal">
        <lane id=":H09_0_0" index="0" speed="3.00" length="0.13" shape="97.25,19.76 97.17,19.85"/>
    </edge>
    <edge id=":H09_1" function="internal">
        <lane id=":H09_1_0" index="0" speed="3.00" length="0.38" shape="94.66,17.87 94.90,17.59"/>
    </edge>
    <edge id=":H10_0" function="internal">
        <lane id=":H10_0_0" index="0" speed="3.00" length="0.13" shape="98.50,18.41 98.41,18.50"/>
    </edge>
    <edge id=":H10_1" function="internal">
        <lane id=":H10_1_0" index="0" speed="3.00" length="0.38" shape="96.06,16.33 96.33,16.06"/>
    </edge>
    <edge id=":H11_0" function="internal">
        <lane id=":H11_0_0" index="0" speed="3.00" length="0.13" shape="99.85,17.17 99.76,17.25"/>
    </edge>
    <edge id=":H11_1" function="internal">
        <lane id=":H11_1_0" index="0" speed="3.00" length="0.38" shape="97.59,14.90 97.87,14.66"/>
    </edge>
    <edge id=":H12_0" function="internal">
        <lane id=":H12_0_0" index="0" speed="3.00" length="0.13" shape="101.30,16.04 101.20,16.11"/>
    </edge>
    <edge id=":H12_1" function="internal">
        <lane id=":H12_1_0" index="0" speed="3.00" length="0.38" shape="99.22,13.60 99.52,13.37"/>
    </edge>
    <edge id=":H13_0" function="internal">
        <lane id=":H13_0_0" index="0" speed="3.00" length="0.13" shape="102.83,15.02 102.72,15.08"/>
    </edge>
    <edge id=":H13_1" function="internal">
        <lane id=":H13_1_0" index="0" speed="3.00" length="0.38" shape="100.94,12.42 101.27,12.23"/>
    </edge>
    <edge id=":H14_0" function="internal">
        <lane id=":H14_0_0" index="0" speed="3.00" length="0.13" shape="104.43,14.13 104.32,14.18"/>
    </edge>
    <edge id=":H14_1" function="internal">
        <lane id=":H14_1_0" index="0" speed="3.00" length="0.38" shape="102.76,11.39 103.09,11.22"/>
    </edge>
    <edge id=":H15_0" function="internal">
        <lane id=":H15_0_0" index="0" speed="3.00" length="0.13" shape="106.10,13.36 105.99,13.41"/>
    </edge>
    <edge id=":H15_1" function="internal">
        <lane id=":H15_1_0" index="0" speed="3.00" length="0.38" shape="104.65,10.50 105.00,10.36"/>
    </edge>
    <edge id=":H16_0" function="internal">
        <lane id=":H16_0_0" index="0" speed="3.00" length="0.13" shape="107.83,12.73 107.71,12.77"/>
    </edge>
    <edge id=":H16_1" function="internal">
        <lane id=":H16_1_0" index="0" speed="3.00" length="0.38" shape="106.60,9.77 106.96,9.65"/>
    </edge>
    <edge id=":H17_0" function="internal">
        <lane id=":H17_0_0" index="0" speed="3.00" length="0.13" shape="109.60,12.24 109.48,12.26"/>
    </edge>
    <edge id=":H17_1" function="internal">
        <lane id=":H17_1_0" index="0" speed="3.00" length="0.38" shape="108.61,9.18 108.98,9.10"/>
    </edge>
    <edge id=":H18_0" function="internal">
        <lane id=":H18_0_0" index="0" speed="3.00" length="0.13" shape="111.40,11.88 111.28,11.90"/>
    </edge>
    <edge id=":H18_1" function="internal">
        <lane id=":H18_1_0" index="0" speed="3.00" length="0.38" shape="110.65,8.76 111.03,8.70"/>
    </edge>
    <edge id=":H19_0" function="internal">
        <lane id=":H19_0_0" index="0" speed="3.00" length="0.13" shape="113.23,11.67 113.10,11.68"/>
    </edge>
    <edge id=":H19_1" function="internal">
        <lane id=":H19_1_0" index="0" speed="3.00" length="0.38" shape="112.73,8.50 113.10,8.47"/>
    </edge>
    <edge id=":H20_0" function="internal">
        <lane id=":H20_0_0" index="0" speed="3.00" length="0.13" shape="115.06,11.60 114.94,11.60"/>
    </edge>
    <edge id=":H20_1" function="internal">
        <lane id=":H20_1_0" index="0" speed="3.00" length="0.38" shape="114.81,8.41 115.19,8.41"/>
    </edge>
    <edge id=":H21_0" function="internal">
        <lane id=":H21_0_0" index="0" speed="3.00" length="0.13" shape="116.90,11.68 116.77,11.67"/>
    </edge>
    <edge id=":H21_1" function="internal">
        <lane id=":H21_1_0" index="0" speed="3.00" length="0.38" shape="116.90,8.47 117.27,8.50"/>
    </edge>
    <edge id=":H22_0" function="internal">
        <lane id=":H22_0_0" index="0" speed="3.00" length="0.13" shape="118.72,11.90 118.60,11.88"/>
    </edge>
    <edge id=":H22_1" function="internal">
        <lane id=":H22_1_0" index="0" speed="3.00" length="0.38" shape="118.97,8.70 119.35,8.76"/>
    </edge>
    <edge id=":H23_0" function="internal">
        <lane id=":H23_0_0" index="0" speed="3.00" length="0.13" shape="120.52,12.26 120.40,12.24"/>
    </edge>
    <edge id=":H23_1" function="internal">
        <lane id=":H23_1_0" index="0" speed="3.00" length="0.38" shape="121.03,9.10 121.39,9.18"/>
    </edge>
    <edge id=":H24_0" function="internal">
        <lane id=":H24_0_0" index="0" speed="3.00" length="0.13" shape="122.29,12.77 122.17,12.73"/>
    </edge>
    <edge id=":H24_1" function="internal">
        <lane id=":H24_1_0" index="0" speed="3.00" length="0.38" shape="123.04,9.65 123.40,9.77"/>
    </edge>
    <edge id=":H25_0" function="internal">
        <lane id=":H25_0_0" index="0" speed="3.00" length="0.13" shape="124.01,13.41 123.90,13.36"/>
    </edge>
    <edge id=":H25_1" function="internal">
        <lane id=":H25_1_0" index="0" speed="3.00" length="0.38" shape="125.00,10.36 125.35,10.50"/>
    </edge>
    <edge id=":H26_0" function="internal">
        <lane id=":H26_0_0" index="0" speed="3.00" length="0.13" shape="125.68,14.18 125.57,14.13"/>
    </edge>
    <edge id=":H26_1" function="internal">
        <lane id=":H26_1_0" index="0" speed="3.00" length="0.38" shape="126.91,11.22 127.24,11.39"/>
    </edge>
    <edge id=":H27_0" function="internal">
        <lane id=":H27_0_0" index="0" speed="3.00" length="0.13" shape="127.28,15.08 127.17,15.02"/>
    </edge>
    <edge id=":H27_1" function="internal">
        <lane id=":H27_1_0" index="0" speed="3.00" length="0.38" shape="128.73,12.23 129.06,12.42"/>
    </edge>
    <edge id=":H28_0" function="internal">
        <lane id=":H28_0_0" index="0" speed="3.00" length="0.13" shape="128.80,16.11 128.70,16.04"/>
    </edge>
    <edge id=":H28_1" function="internal">