<routes>
    <vType accel="1.0" decel="5.0" id="Car" length="4.0" maxSpeed="50.0" speedFactor="normc(1.0,0.7, 0.1, 1.9)" sigma="0.9"/>
    <route id="route_ccw_1" edges="A02toA03 A03toB01 B01toB02 B02toB03 B03toB04 B04toB05 B05toB06 B06toB07 B07toB08 B08toB09 B09toB10 B10toB11 B11toB12 B12toB13 B13toB14 B14toB15 B15toB16 B16toB17 B17toB18 B18toB19 B19toC01 C01toC02 C02toD01 D01toD02 D02toD03 D03toD04 D04toD05 D05toD06 D06toD07 D07toD08 D08toD09 D09toD10 D10toD11 D11toD12 D12toD13 D13toD14 D14toD15 D15toD16 D16toD17 D17toD18 D18toD19 D19toE01 E01toE02 E02toF01 F01toF02 F02toF03 F03toF04 F04toF05 F05toF06 F06toF07 F07toF08 F08toF09 F09toF10 F10toF11 F11toF12 F12toF13 F13toF14 F14toF15 F15toF16 F16toF17 F17toF18 F18toF19 F19toG01 G01toG02 G02toH01 H01toH02 H02toH03 H03toH04 H04toH05 H05toH06 H06toH07 H07toH08 H08toH09 H09toH10 H10toH11 H11toH12 H12toH13 H13toH14 H14toH15 H15toH16 H16toH17 H17toH18 H18toH19 H19toH20 H20toH21 H21toH22 H22toH23 H23toH24 H24toH25 H25toH26 H26toH27 H27toH28 H28toH29 H29toH30 H30toH31 H31toH32 H32toH33 H33toH34 H34toH35 H35toH36 H36toH37 H37toH38 H38toH39 H39toH40 H40toH41 H41toH42 H42toH43 H43toH44 H44toH45 H45toH46 H46toH47 H47toH48 H48toH49 H49toH50 H50toH51 H51toH52 H52toH53 H53toH54 H54toH55 H55toH56 H56toH57 H57toH58 H58toH59 H59toI01 I01toI02 I02toJ01 J01toJ02 J02toJ03 J03toJ04 J04toJ05 J05toJ06 J06toJ07 J07toJ08 J08toJ09 J09toJ10 J10toJ11 J11toJ12 J12toJ13 J13toJ14 J14toJ15 J15toJ16 J16toJ17 J17toJ18 J18toJ19 J19toJ20 J20toJ21 J21toJ22 J22toJ23 J23toJ24 J24toJ25 J25toJ26 J26toJ27 J27toJ28 J28toJ29 J29toJ30 J30toJ31 J31toJ32 J32toJ33 J33toJ34 J34toJ35 J35toJ36 J36toJ37 J37toJ38 J38toJ39 J39toJ40 J40toJ41 J41toJ42 J42toJ43 J43toJ44 J44toJ45 J45toJ46 J46toJ47 J47toJ48 J48toJ49 J49toJ50 J50toJ51 J51toJ52 J52toJ53 J53toJ54 J54toJ55 J55toJ56 J56toJ57 J57toJ58 J58toJ59 J59toK01 K01toK02 K02toL01 L01toL02 L02toL03 L03toL04 L04toL05 L05toL06 L06toL07 L07toL08 L08toL09 L09toL10 L10toL11 L11toL12 L12toL13 L13toL14 L14toL15 L15toL16 L16toL17 L17toL18 L18toL19 L19toM01 M01toM02 M02toN01 N01toN02 N02toN03 N03toN04 N04toN05 N05toN06 N06toN07 N07toN08 N08toN09 N09toN10 N10toN11 N11toN12 N12toN13 N13toN14 N14toN15 N15toN16 N16toN17 N17toN18 N18toN19 N19toO01 O01toO02 O02toP01 P01toP02 P02toP03 P03toP04 P04toP05 P05toP06 P06toP07 P07toP08 P08toP09 P09toP10 P10toP11 P11toP12 P12toP13 P13toP14 P14toP15 P15toP16 P16toP17 P17toP18 P18toP19 P19toA01 A01toA02"/>
    <route id="route_ccw_2" edges="C01toC02 C02toD01 D01toD02 D02toD03 D03toD04 D04toD05 D05toD06 D06toD07 D07toD08 D08toD09 D09toD10 D10toD11 D11toD12 D12toD13 D13toD14 D14toD15 D15toD16 D16toD17 D17toD18 D18toD19 D19toE01 E01toE02 E02toF01 F01toF02 F02toF03 F03toF04 F04toF05 F05toF06 F06toF07 F07toF08 F08toF09 F09toF10 F10toF11 F11toF12 F12toF13 F13toF14 F14toF15 F15toF16 F16toF17 F17toF18 F18toF19 F19toG01 G01toG02 G02toH01 H01toH02 H02toH03 H03toH04 H04toH05 H05toH06 H06toH07 H07toH08 H08toH09 H09toH10 H10toH11 H11toH12 H12toH13 H13toH14 H14toH15 H15toH16 H16toH17 H17toH18 H18toH19 H19toH20 H20toH21 H21toH22 H22toH23 H23toH24 H24toH25 H25toH26 H26toH27 H27toH28 H28toH29 H29toH30 H30toH31 H31toH32 H32toH33 H33toH34 H34toH35 H35toH36 H36toH37 H37toH38 H38toH39 H39toH40 H40toH41 H41toH42 H42toH43 H43toH44 H44toH45 H45toH46 H46toH47 H47toH48 H48toH49 H49toH50 H50toH51 H51toH52 H52toH53 H53toH54 H54toH55 H55toH56 H56toH57 H57toH58 H58toH59 H59toI01 I01toI02 I02toJ01 J01toJ02 J02toJ03 J03toJ04 J04toJ05 J05toJ06 J06toJ07 J07toJ08 J08toJ09 J09toJ10 J10toJ11 J11toJ12 J12toJ13 J13toJ14 J14toJ15 J15toJ16 J16toJ17 J17toJ18 J18toJ19 J19toJ20 J20toJ21 J21toJ22 J22toJ23 J23toJ24 J24toJ25 J25toJ26 J26toJ27 J27toJ28 J28toJ29 J29toJ30 J30toJ31 J31toJ32 J32toJ33 J33toJ34 J34toJ35 J35toJ36 J36toJ37 J37toJ38 J38toJ39 J39toJ40 J40toJ41 J41toJ42 J42toJ43 J43toJ44 J44toJ45 J45toJ46 J46toJ47 J47toJ48 J48toJ49 J49toJ50 J50toJ51 J51toJ52 J52toJ53 J53toJ54 J54toJ55 J55toJ56 J56toJ57 J57toJ58 J58toJ59 J59toK01 K01toK02 K02toL01 L01toL02 L02toL03 L03toL04 L04toL05 L05toL06 L06toL07 L07toL08 L08toL09 L09toL10 L10toL11 L11toL12 L12toL13 L13toL14 L14toL15 L15toL16 L16toL17 L17toL18 L18toL19 L19toM01 M01toM02 M02toN01 N01toN02 N02toN03 N03toN04 N04toN05 N05toN06 N06toN07 N07toN08 N08toN09 N09toN10 N10toN11 N11toN12 N12toN13 N13toN14 N14toN15 N15toN16 N16toN17 N17toN18 N18toN19 N19toO01 O01toO02 O02toP01 P01toP02 P02toP03 P03toP04 P04toP05 P05toP06 P06toP07 P07toP08 P08toP09 P09toP10 P10toP11 P11toP12 P12toP13 P13toP14 P14toP15 P15toP16 P16toP17 P17toP18 P18toP19 P19toA01 A01toA02 A02toA03 A03toB01 B01toB02 B02toB03 B03toB04 B04toB05 B05toB06 B06toB07 B07toB08 B08toB09 B09toB10 B10toB11 B11toB12 B12toB13 B13toB14 B14toB15 B15toB16 B16toB17 B17toB18 B18toB19 B19toC01"/>
    <route id="route_ccw_3" edges="G01toG02 G02toH01 H01toH02 H02toH03 H03toH04 H04toH05 H05toH06 H06toH07 H07toH08 H08toH09 H09toH10 H10toH11 H11toH12 H12toH13 H13toH14 H14toH15 H15toH16 H16toH17 H17toH18 H18toH19 H19toH20 H20toH21 H21toH22 H22toH23 H23toH24 H24toH25 H25toH26 H26toH27 H27toH28 H28toH29 H29toH30 H30toH31 H31toH32 H32toH33 H33toH34 H34toH35 H35toH36 H36toH37 H37toH38 H38toH39 H39toH40 H40toH41 H41toH42 H42toH43 H43toH44 H44toH45 H45toH46 H46toH47 H47toH48 H48toH49 H49toH50 H50toH51 H51toH52 H52toH53 H53toH54 H54toH55 H55toH56 H56toH57 H57toH58 H58toH59 H59toI01 I01toI02 I02toJ01 J01toJ02 J02toJ03 J03toJ04 J04toJ05 J05toJ06 J06toJ07 J07toJ08 J08toJ09 J09toJ10 J10toJ11 J11toJ12 J12toJ13 J13toJ14 J14toJ15 J15toJ16 J16toJ17 J17toJ18 J18toJ19 J19toJ20 J20toJ21 J21toJ22 J22toJ23 J23toJ24 J24toJ25 J25toJ26 J26toJ27 J27toJ28 J28toJ29 J29toJ30 J30toJ31 J31toJ32 J32toJ33 J33toJ34 J34toJ35 J35toJ36 J36toJ37 J37toJ38 J38toJ39 J39toJ40 J40toJ41 J41toJ42 J42toJ43 J43toJ44 J44toJ45 J45toJ46 J46toJ47 J47toJ48 J48toJ49 J49toJ50 J50toJ51 J51toJ52 J52toJ53 J53toJ54 J54toJ55 J55toJ56 J56toJ57 J57toJ58 J58toJ59 J59toK01 K01toK02 K02toL01 L01toL02 L02toL03 L03toL04 L04toL05 L05toL06 L06toL07 L07toL08 L08toL09 L09toL10 L10toL11 L11toL12 L12toL13 L13toL14 L14toL15 L15toL16 L16toL17 L17toL18 L18toL19 L19toM01 M01toM02 M02toN01 N01toN02 N02toN03 N03toN04 N04toN05 N05toN06 N06toN07 N07toN08 N08toN09 N09toN10 N10toN11 N11toN12 N12toN13 N13toN14 N14toN15 N15toN16 N16toN17 N17toN18 N18toN19 N19toO01 O01toO02 O02toP01 P01toP02 P02toP03 P03toP04 P04toP05 P05toP06 P06toP07 P07toP08 P08toP09 P09toP10 P10toP11 P11toP12 P12toP13 P13toP14 P14toP15 P15toP16 P16toP17 P17toP18 P18toP19 P19toA01 A01toA02 A02toA03 A03toB01 B01toB02 B02toB03 B03toB04 B04toB05 B05toB06 B06toB07 B07toB08 B08toB09 B09toB10 B10toB11 B11toB12 B12toB13 B13toB14 B14toB15 B15toB16 B16toB17 B17toB18 B18toB19 B19toC01 C01toC02 C02toD01 D01toD02 D02toD03 D03toD04 D04toD05 D05toD06 D06toD07 D07toD08 D08toD09 D09toD10 D10toD11 D11toD12 D12toD13 D13toD14 D14toD15 D15toD16 D16toD17 D17toD18 D18toD19 D19toE01 E01toE02 E02toF01 F01toF02 F02toF03 F03toF04 F04toF05 F05toF06 F06toF07 F07toF08 F08toF09 F09toF10 F10toF11 F11toF12 F12toF13 F13toF14 F14toF15 F15toF16 F16toF17 F17toF18 F18toF19 F19toG01"/>
    <route id="route_cw_1" edges="A03toA02 A02toA01 A01toP19 P19toP18 P18toP17 P17toP16 P16toP15 P15toP14 P14toP13 P13toP12 P12toP11 P11toP10 P10toP09 P09toP08 P08toP07 P07toP06 P06toP05 P05toP04 P04toP03 P03toP02 P02toP01 P01toO02 O02toO01 O01toN19 N19toN18 N18toN17 N17toN16 N16toN15 N15toN14 N14toN13 N13toN12 N12toN11 N11toN10 N10toN09 N09toN08 N08toN07 N07toN06 N06toN05 N05toN04 N04toN03 N03toN02 N02toN01 N01toM02 M02toM01 M01toL19 L19toL18 L18toL17 L17toL16 L16toL15 L15toL14 L14toL13 L13toL12 L12toL11 L11toL10 L10toL09 L09toL08 L08toL07 L07toL06 L06toL05 L05toL04 L04toL03 L03toL02 L02toL01 L01toK02 K02toK01 K01toJ59 J59toJ58 J58toJ57 J57toJ56 J56toJ55 J55toJ54 J54toJ53 J53toJ52 J52toJ51 J51toJ50 J50toJ49 J49toJ48 J48toJ47 J47toJ46 J46toJ45 J45toJ44 J44toJ43 J43toJ42 J42toJ41 J41toJ40 J40toJ39 J39toJ38 J38toJ37 J37toJ36 J36toJ35 J35toJ34 J34toJ33 J33toJ32 J32toJ31 J31toJ30 J30toJ29 J29toJ28 J28toJ27 J27toJ26 J26toJ25 J25toJ24 J24toJ23 J23toJ22 J22toJ21 J21toJ20 J20toJ19 J19toJ18 J18toJ17 J17toJ16 J16toJ15 J15toJ14 J14toJ13 J13toJ12 J12toJ11 J11toJ10 J10toJ09 J09toJ08 J08toJ07 J07toJ06 J06toJ05 J05toJ04 J04toJ03 J03toJ02 J02toJ01 J01toI02 I02toI01 I01toH59 H59toH58 H58toH57 H57toH56 H56toH55 H55toH54 H54toH53 H53toH52 H52toH51 H51toH50 H50toH49 H49toH48 H48toH47 H47toH46 H46toH45 H45toH44 H44toH43 H43toH42 H42toH41 H41toH40 H40toH39 H39toH38 H38toH37 H37toH36 H36toH35 H35toH34 H34toH33 H33toH32 H32toH31 H31toH30 H30toH29 H29toH28 H28toH27 H27toH26 H26toH25 H25toH24 H24toH23 H23toH22 H22toH21 H21toH20 H20toH19 H19toH18 H18toH17 H17toH16 H16toH15 H15toH14 H14toH13 H13toH12 H12toH11 H11toH10 H10toH09 H09toH08 H08toH07 H07toH06 H06toH05 H05toH04 H04toH03 H03toH02 H02toH01 H01toG02 G02toG01 G01toF19 F19toF18 F18toF17 F17toF16 F16toF15 F15toF14 F14toF13 F13toF12 F12toF11 F11toF10 F10toF09 F09toF08 F08toF07 F07toF06 F06toF05 F05toF04 F04toF03 F03toF02 F02toF01 F01toE02 E02toE01 E01toD19 D19toD18 D18toD17 D17toD16 D16toD15 D15toD14 D14toD13 D13toD12 D12toD11 D11toD10 D10toD09 D09toD08 D08toD07 D07toD06 D06toD05 D05toD04 D04toD03 D03toD02 D02toD01 D01toC02 C02toC01 C01toB19 B19toB18 B18toB17 B17toB16 B16toB15 B15toB14 B14toB13 B13toB12 B12toB11 B11toB10 B10toB09 B09toB08 B08toB07 B07toB06 B06toB05 B05toB04 B04toB03 B03toB02 B02toB01 B01toA03"/>
    <vehicle id="veh0" depart="1" route="route_ccw_1" type="Car" departPos="random_free"/>
    <!-- <vehicle id="veh1" depart="1" route="route_ccw_1" type="Car" departPos="random_free"/> -->
    <!-- <vehicle id="veh2" depart="1" route="route_ccw_2" type="Car" departPos="random_free"/> -->
    <!-- <vehicle id="veh3" depart="1" route="route_ccw_2" type="Car" departPos="random_free"/> -->
    <!-- <vehicle id="veh4" depart="1" route="route_ccw_3" type="Car" departPos="random_free"/> -->
    <!-- <vehicle id="veh5" depart="1" route="route_ccw_3" type="Car" departPos="random_free"/> -->
    <!-- <vehicle id="veh6" depart="1" route="route_cw_1" type="Car" departPos="random_free"/> -->
    <!-- <vehicle id="veh7" depart="1" route="route_cw_1" type="Car" departPos="random_free"/> -->
</routes>
