<nodes>
  <node id="A01" x="10.0"  y="0.0" />
  <node id="A02" x="36.0"  y="0.0" />
  <node id="A03" x="120.0" y="0.0" />
  <node id="B01" x="121.569185576439" y="0.06165361353412"/>
  <node id="B02" x="123.128696556768" y="0.24623433733032"/>
  <node id="B03" x="124.668917992260" y="0.55260416452752"/>
  <node id="B04" x="126.180353861200" y="0.97887421443326"/>
  <node id="B05" x="127.653685615294" y="1.52241637815574"/>
  <node id="B06" x="129.079829631884" y="2.17987952184479"/>
  <node id="B07" x="130.449993217766" y="2.94721014764301"/>
  <node id="B08" x="131.755728819320" y="3.81967738496482"/>
  <node id="B09" x="132.988986104730" y="4.79190215802313"/>
  <node id="B10" x="134.142161597189" y="5.85789034977528"/>
  <node id="B11" x="135.208145553084" y="7.01106975782064"/>
  <node id="B12" x="136.180365796129" y="8.24433061440332"/>
  <node id="B13" x="137.052828237210" y="9.55006942069945"/>
  <node id="B14" x="137.820153830112" y="10.9202358251350"/>
  <node id="B15" x="138.477611735277" y="12.3463822567125"/>
  <node id="B16" x="139.021148487146" y="13.8197160073381"/>
  <node id="B17" x="139.447412985235" y="15.3311534420453"/>
  <node id="B18" x="139.753777154881" y="16.8713760028858"/>
  <node id="B19" x="139.938352150272" y="18.4308876612076"/>
  <node id="C01" x="140.0" y="20.0"/>
  <node id="C02" x="140.0" y="70.0"/>
  <node id="D01" x="139.938346386466" y="71.5691855764387"/>
  <node id="D02" x="139.753765662670" y="73.1286965567681"/>
  <node id="D03" x="139.447395835472" y="74.6689179922599"/>
  <node id="D04" x="139.021125785567" y="76.1803538611999"/>
  <node id="D05" x="138.477583621844" y="77.6536856152936"/>
  <node id="D06" x="137.820120478155" y="79.0798296318837"/>
  <node id="D07" x="137.052789852357" y="80.4499932177658"/>
  <node id="D08" x="136.180322615035" y="81.7557288193196"/>
  <node id="D09" x="135.208097841977" y="82.9889861047296"/>
  <node id="D10" x="134.142109650225" y="84.1421615971895"/>
  <node id="D11" x="132.988930242179" y="85.2081455530843"/>
  <node id="D12" x="131.755669385597" y="86.1803657961291"/>
  <node id="D13" x="130.449930579301" y="87.0528282372104"/>
  <node id="D14" x="129.079764174865" y="87.8201538301115"/>
  <node id="D15" x="127.653617743288" y="88.4776117352767"/>
  <node id="D16" x="126.180283992662" y="89.0211484871458"/>
  <node id="D17" x="124.668846557955" y="89.4474129852347"/>
  <node id="D18" x="123.128623997114" y="89.7537771548806"/>
  <node id="D19" x="121.569112338792" y="89.9383521502718"/>
  <node id="E01" x="120.0" y="90.0"/>
  <node id="E02" x="95.0" y="90.0"/>
  <node id="F01" x="93.8231108176710" y="89.9537597898494"/>
  <node id="F02" x="92.6534775824239" y="89.8153242470023"/>
  <node id="F03" x="91.4983115058051" y="89.5855468766044"/>
  <node id="F04" x="90.3647346041001" y="89.2658443391750"/>
  <node id="F05" x="89.2597357885298" y="88.8581877163832"/>
  <node id="F06" x="88.1901277760872" y="88.3650903586164"/>
  <node id="F07" x="87.1625050866757" y="87.7895923892677"/>
  <node id="F08" x="86.1832033855103" y="87.1352419612764"/>
  <node id="F09" x="85.2582604214528" y="86.4060733814827"/>
  <node id="F10" x="84.3933788021079" y="85.6065822376685"/>
  <node id="F11" x="83.5938908351868" y="84.7416976816345"/>
  <node id="F12" x="82.8647256529032" y="83.8167520391975"/>
  <node id="F13" x="82.2103788220922" y="82.8374479344754"/>
  <node id="F14" x="81.6348846274163" y="81.8098231311487"/>
  <node id="F15" x="81.1417911985425" y="80.7402133074657"/>
  <node id="F16" x="80.7341386346407" y="79.6352129944964"/>
  <node id="F17" x="80.4144402610740" y="78.5016349184661"/>
  <node id="F18" x="80.1846671338396" y="77.3464679978356"/>
  <node id="F19" x="80.0462358872961" y="76.1768342540943"/>
  <node id="G01" x="80.0" y="75.0"/>
  <node id="G02" x="80.0" y="35.0"/>
  <node id="H01" x="80.0770670169177" y="33.0385180294516"/>
  <node id="H02" x="80.3077929216629" y="31.0891293040399"/>
  <node id="H03" x="80.6907552056594" y="29.1638525096752"/>
  <node id="H04" x="81.2235927680416" y="27.2745576735002"/>
  <node id="H05" x="81.9030204726947" y="25.4328929808830"/>
  <node id="H06" x="82.7248494023060" y="23.6502129601454"/>
  <node id="H07" x="83.6840126845538" y="21.9375084777928"/>
  <node id="H08" x="84.7745967312060" y="20.3053389758505"/>
  <node id="H09" x="85.9898776975289" y="18.7637673690880"/>
  <node id="H10" x="87.3223629372191" y="17.3222980035132"/>
  <node id="H11" x="88.7638371972758" y="15.9898180586446"/>
  <node id="H12" x="90.3054132680041" y="14.7745427548386"/>
  <node id="H13" x="91.9375867758743" y="13.6839647034870"/>
  <node id="H14" x="93.6502947814188" y="12.7248077123606"/>
  <node id="H15" x="95.4329778208906" y="11.9029853309042"/>
  <node id="H16" x="97.2746450091727" y="11.2235643910678"/>
  <node id="H17" x="99.1639418025566" y="10.6907337684567"/>
  <node id="H18" x="101.089220003607" y="10.3077785563993"/>
  <node id="H19" x="103.038609576509" y="10.0770598121602"/>
  <node id="H20" x="105.000091830128" y="10.0000000001687"/>
  <node id="H21" x="106.961573517580" y="10.0770742220114"/>
  <node id="H22" x="108.910961395475" y="10.3078072872597"/>
  <node id="H23" x="110.836236783127" y="10.6907766431901"/>
  <node id="H24" x="112.725529662068" y="11.2236211453362"/>
  <node id="H25" x="114.567191858996" y="11.9030556147968"/>
  <node id="H26" x="116.349868860975" y="12.7248910925519"/>
  <node id="H27" x="118.062569820112" y="13.6840606659081"/>
  <node id="H28" x="119.694735316105" y="14.7746507078463"/>
  <node id="H29" x="121.236302458881" y="15.9899373366697"/>
  <node id="H30" x="122.677766929954" y="17.3224278711635"/>
  <node id="H31" x="124.010241579983" y="18.7639070256827"/>
  <node id="H32" x="125.225511221256" y="20.3054875603560"/>
  <node id="H33" x="126.316083277292" y="21.9376650741321"/>
  <node id="H34" x="127.275233977284" y="23.6503766028454"/>
  <node id="H35" x="128.097049810575" y="25.4330626610273"/>
  <node id="H36" x="128.776463985585" y="27.2747323449494"/>
  <node id="H37" x="129.309287668418" y="29.1640310955167"/>
  <node id="H38" x="129.692235808531" y="31.0893107032275"/>
  <node id="H39" x="129.922947392261" y="33.0387011235938"/>
  <node id="H40" x="129.999999999325" y="35.0001836602552"/>
  <node id="H41" x="129.922918572559" y="36.9616650645847"/>
  <node id="H42" x="129.692178346810" y="38.9110520949367"/>
  <node id="H43" x="129.309201918951" y="40.8363260758514"/>
  <node id="H44" x="128.776350477048" y="42.7256169975322"/>
  <node id="H45" x="128.096909242789" y="44.5672766987450"/>
  <node id="H46" x="127.275067216902" y="46.3499506819421"/>
  <node id="H47" x="126.315891352450" y="48.0626481178415"/>
  <node id="H48" x="125.225295315240" y="49.6948096078620"/>
  <node id="H49" x="124.010003023933" y="51.2363722866304"/>
  <node id="H50" x="122.677507194654" y="52.6778318631832"/>
  <node id="H51" x="121.236023145691" y="54.0103012183546"/>
  <node id="H52" x="119.694438147094" y="55.2255651970776"/>
  <node id="H53" x="118.062256627434" y="56.3161312577836"/>
  <node id="H54" x="116.349541575575" y="57.2752756666286"/>
  <node id="H55" x="114.566852498707" y="58.0970849517419"/>
  <node id="H56" x="112.725180319170" y="58.7764923619173"/>
  <node id="H57" x="110.835879611444" y="59.3093091049649"/>
  <node id="H58" x="108.910598597100" y="59.6922501731285"/>
  <node id="H59" x="106.961207329295" y="59.9229545963459"/>
  <node id="I01" x="105.0" y="60.0"/>
  <node id="I02" x="25.0"  y="60.0"/>
  <node id="J01" x="23.0385180294516" y="59.9229329830823"/>
  <node id="J02" x="21.0891293040399" y="59.6922070783371"/>
  <node id="J03" x="19.1638525096752" y="59.3092447943406"/>
  <node id="J04" x="17.2745576735002" y="58.7764072319584"/>
  <node id="J05" x="15.4328929808830" y="58.0969795273053"/>
  <node id="J06" x="13.6502129601454" y="57.2751505976940"/>
  <node id="J07" x="11.9375084777928" y="56.3159873154462"/>
  <node id="J08" x="10.3053389758505" y="55.2254032687940"/>
  <node id="J09" x="8.76376736908801" y="54.0101223024711"/>
  <node id="J10" x="7.32229800351316" y="52.6776370627809"/>
  <node id="J11" x="5.98981805864459" y="51.2361628027242"/>
  <node id="J12" x="4.77454275483861" y="49.6945867319959"/>
  <node id="J13" x="3.68396470348704" y="48.0624132241257"/>
  <node id="J14" x="2.72480771236058" y="46.3497052185812"/>
  <node id="J15" x="1.90298533090417" y="44.5670221791094"/>
  <node id="J16" x="1.22356439106780" y="42.7253549908273"/>
  <node id="J17" x="0.69073376845666" y="40.8360581974434"/>
  <node id="J18" x="0.30777855639929" y="38.9107799963927"/>
  <node id="J19" x="0.07705981216021" y="36.9613904234905"/>
  <node id="J20" x="0.00000000001686" y="34.9999081698724"/>
  <node id="J21" x="0.07707422201138" y="33.0384264824202"/>
  <node id="J22" x="0.30780728725968" y="31.0890386045252"/>
  <node id="J23" x="0.69077664319014" y="29.1637632168725"/>
  <node id="J24" x="1.22362114533616" y="27.2744703379319"/>
  <node id="J25" x="1.90305561479682" y="25.4328081410044"/>
  <node id="J26" x="2.72489109255193" y="23.6501311390251"/>
  <node id="J27" x="3.68406066590808" y="21.9374301798875"/>
  <node id="J28" x="4.77465070784634" y="20.3052646838951"/>
  <node id="J29" x="5.98993733666972" y="18.7636975411193"/>
  <node id="J30" x="7.32242787116354" y="17.3222330700457"/>
  <node id="J31" x="8.76390702568266" y="15.9897584200168"/>
  <node id="J32" x="10.3054875603560" y="14.7744887787441"/>
  <node id="J33" x="11.9376650741321" y="13.6839167227079"/>
  <node id="J34" x="13.6503766028454" y="12.7247660227157"/>
  <node id="J35" x="15.4330626610273" y="11.9029501894253"/>
  <node id="J36" x="17.2747323449494" y="11.2235360144148"/>
  <node id="J37" x="19.1640310955167" y="10.6907123315819"/>
  <node id="J38" x="21.0893107032275" y="10.3077641914688"/>
  <node id="J39" x="23.0387011235938" y="10.0770526077390"/>
  <node id="J40" x="25.0001836602552" y="10.0000000006746"/>
  <node id="J41" x="26.9616650645847" y="10.0770814274414"/>
  <node id="J42" x="28.9110520949367" y="10.3078216531896"/>
  <node id="J43" x="30.8363260758514" y="10.6907980810489"/>
  <node id="J44" x="32.7256169975321" y="11.2236495229515"/>
  <node id="J45" x="34.5672766987450" y="11.9030907572106"/>
  <node id="J46" x="36.3499506819420" y="12.7249327830984"/>
  <node id="J47" x="38.0626481178415" y="13.6841086475500"/>
  <node id="J48" x="39.6948096078620" y="14.7747046847595"/>
  <node id="J49" x="41.2363722866304" y="15.9899969760670"/>
  <node id="J50" x="42.6778318631832" y="17.3224928053465"/>
  <node id="J51" x="44.0103012183546" y="18.7639768543086"/>
  <node id="J52" x="45.2255651970776" y="20.3055618529062"/>
  <node id="J53" x="46.3161312577836" y="21.9377433725661"/>
  <node id="J54" x="47.2752756666286" y="23.6504584244250"/>
  <node id="J55" x="48.0970849517419" y="25.4331475012930"/>
  <node id="J56" x="48.7764923619173" y="27.2748196808303"/>
  <node id="J57" x="49.3093091049649" y="29.1641203885556"/>
  <node id="J58" x="49.6922501731285" y="31.0894014029005"/>
  <node id="J59" x="49.9229545963459" y="33.0387926707046"/>
  <node id="K01" x="50.0" y="35.0"/>
  <node id="K02" x="50.0" y="75.0"/>
  <node id="L01" x="49.9537597898494" y="76.1768891823290"/>
  <node id="L02" x="49.8153242470023" y="77.3465224175761"/>
  <node id="L03" x="49.5855468766044" y="78.5016884941949"/>
  <node id="L04" x="49.2658443391751" y="79.6352653958999"/>
  <node id="L05" x="48.8581877163832" y="80.7402642114702"/>
  <node id="L06" x="48.3650903586164" y="81.8098722239128"/>
  <node id="L07" x="47.7895923892678" y="82.8374949133243"/>
  <node id="L08" x="47.1352419612764" y="83.8167966144897"/>
  <node id="L09" x="46.4060733814827" y="84.7417395785472"/>
  <node id="L10" x="45.6065822376686" y="85.6066211978921"/>
  <node id="L11" x="44.7416976816345" y="86.4061091648133"/>
  <node id="L12" x="43.8167520391975" y="87.1352743470968"/>
  <node id="L13" x="42.8374479344754" y="87.7896211779078"/>
  <node id="L14" x="41.8098231311487" y="88.3651153725837"/>
  <node id="L15" x="40.7402133074657" y="88.8582088014575"/>
  <node id="L16" x="39.6352129944964" y="89.2658613653593"/>
  <node id="L17" x="38.5016349184661" y="89.5855597389260"/>
  <node id="L18" x="37.3464679978356" y="89.8153328661604"/>
  <node id="L19" x="36.1768342540943" y="89.9537641127039"/>
  <node id="M01" x="35.0" y="90.0"/>
  <node id="M02" x="10.0" y="90.0"/>
  <node id="N01" x="8.430814423561290" y="89.9383463864659"/>
  <node id="N02" x="6.871303443231890" y="89.7537656626697"/>
  <node id="N03" x="5.331082007740140" y="89.4473958354725"/>
  <node id="N04" x="3.819646138800120" y="89.0211257855667"/>
  <node id="N05" x="2.346314384706360" y="88.4775836218443"/>
  <node id="N06" x="0.920170368116306" y="87.8201204781552"/>
  <node id="N07" x="-0.44999321776576" y="87.0527898523570"/>
  <node id="N08" x="-1.75572881931959" y="86.1803226150352"/>
  <node id="N09" x="-2.98898610472959" y="85.2080978419769"/>
  <node id="N10" x="-4.14216159718947" y="84.1421096502247"/>
  <node id="N11" x="-5.20814555308433" y="82.9889302421794"/>
  <node id="N12" x="-6.18036579612911" y="81.7556693855967"/>
  <node id="N13" x="-7.05282823721037" y="80.4499305793006"/>
  <node id="N14" x="-7.82015383011154" y="79.0797641748650"/>
  <node id="N15" x="-8.47761173527667" y="77.6536177432875"/>
  <node id="N16" x="-9.02114848714576" y="76.1802839926619"/>
  <node id="N17" x="-9.44741298523467" y="74.6688465579547"/>
  <node id="N18" x="-9.75377715488057" y="73.1286239971142"/>
  <node id="N19" x="-9.93835215027183" y="71.5691123387924"/>
  <node id="O01" x="-10.0" y="70.0"/>
  <node id="O02" x="-10.0" y="20.0"/>
  <node id="P01" x="-9.93834638646587" y="18.4308144235613"/>
  <node id="P02" x="-9.75376566266967" y="16.8713034432319"/>
  <node id="P03" x="-9.44739583547247" y="15.3310820077401"/>
  <node id="P04" x="-9.02112578556674" y="13.8196461388001"/>
  <node id="P05" x="-8.47758362184426" y="12.3463143847064"/>
  <node id="P06" x="-7.82012047815521" y="10.9201703681163"/>
  <node id="P07" x="-7.05278985235699" y="9.55000678223424"/>
  <node id="P08" x="-6.18032261503518" y="8.24427118068041"/>
  <node id="P09" x="-5.20809784197687" y="7.01101389527041"/>
  <node id="P10" x="-4.14210965022473" y="5.85783840281053"/>
  <node id="P11" x="-2.98893024217936" y="4.79185444691568"/>
  <node id="P12" x="-1.75566938559668" y="3.81963420387089"/>
  <node id="P13" x="-0.44993057930055" y="2.94717176278963"/>
  <node id="P14" x="0.920235825135043" y="2.17984616988846"/>
  <node id="P15" x="2.346382256712460" y="1.52238826472333"/>
  <node id="P16" x="3.819716007338120" y="0.97885151285424"/>
  <node id="P17" x="5.331153442045260" y="0.55258701476532"/>
  <node id="P18" x="6.871376002885840" y="0.24622284511943"/>
  <node id="P19" x="8.430887661207570" y="0.06164784972816"/>
</nodes>
