<edges>
  <edge from="A01" to="A02" id="A01toA02"/>
  <edge from="A02" to="A03" id="A02toA03"/>
  <edge from="A03" to="B01" id="A03toB01"/>
  <edge from="B01" to="B02" id="B01toB02"/>
  <edge from="B02" to="B03" id="B02toB03"/>
  <edge from="B03" to="B04" id="B03toB04"/>
  <edge from="B04" to="B05" id="B04toB05"/>
  <edge from="B05" to="B06" id="B05toB06"/>
  <edge from="B06" to="B07" id="B06toB07"/>
  <edge from="B07" to="B08" id="B07toB08"/>
  <edge from="B08" to="B09" id="B08toB09"/>
  <edge from="B09" to="B10" id="B09toB10"/>
  <edge from="B10" to="B11" id="B10toB11"/>
  <edge from="B11" to="B12" id="B11toB12"/>
  <edge from="B12" to="B13" id="B12toB13"/>
  <edge from="B13" to="B14" id="B13toB14"/>
  <edge from="B14" to="B15" id="B14toB15"/>
  <edge from="B15" to="B16" id="B15toB16"/>
  <edge from="B16" to="B17" id="B16toB17"/>
  <edge from="B17" to="B18" id="B17toB18"/>
  <edge from="B18" to="B19" id="B18toB19"/>
  <edge from="B19" to="C01" id="B19toC01"/>
  <edge from="C01" to="C02" id="C01toC02"/>
  <edge from="C02" to="D01" id="C02toD01"/>
  <edge from="D01" to="D02" id="D01toD02"/>
  <edge from="D02" to="D03" id="D02toD03"/>
  <edge from="D03" to="D04" id="D03toD04"/>
  <edge from="D04" to="D05" id="D04toD05"/>
  <edge from="D05" to="D06" id="D05toD06"/>
  <edge from="D06" to="D07" id="D06toD07"/>
  <edge from="D07" to="D08" id="D07toD08"/>
  <edge from="D08" to="D09" id="D08toD09"/>
  <edge from="D09" to="D10" id="D09toD10"/>
  <edge from="D10" to="D11" id="D10toD11"/>
  <edge from="D11" to="D12" id="D11toD12"/>
  <edge from="D12" to="D13" id="D12toD13"/>
  <edge from="D13" to="D14" id="D13toD14"/>
  <edge from="D14" to="D15" id="D14toD15"/>
  <edge from="D15" to="D16" id="D15toD16"/>
  <edge from="D16" to="D17" id="D16toD17"/>
  <edge from="D17" to="D18" id="D17toD18"/>
  <edge from="D18" to="D19" id="D18toD19"/>
  <edge from="D19" to="E01" id="D19toE01"/>
  <edge from="E01" to="E02" id="E01toE02"/>
  <edge from="E02" to="F01" id="E02toF01"/>
  <edge from="F01" to="F02" id="F01toF02"/>
  <edge from="F02" to="F03" id="F02toF03"/>
  <edge from="F03" to="F04" id="F03toF04"/>
  <edge from="F04" to="F05" id="F04toF05"/>
  <edge from="F05" to="F06" id="F05toF06"/>
  <edge from="F06" to="F07" id="F06toF07"/>
  <edge from="F07" to="F08" id="F07toF08"/>
  <edge from="F08" to="F09" id="F08toF09"/>
  <edge from="F09" to="F10" id="F09toF10"/>
  <edge from="F10" to="F11" id="F10toF11"/>
  <edge from="F11" to="F12" id="F11toF12"/>
  <edge from="F12" to="F13" id="F12toF13"/>
  <edge from="F13" to="F14" id="F13toF14"/>
  <edge from="F14" to="F15" id="F14toF15"/>
  <edge from="F15" to="F16" id="F15toF16"/>
  <edge from="F16" to="F17" id="F16toF17"/>
  <edge from="F17" to="F18" id="F17toF18"/>
  <edge from="F18" to="F19" id="F18toF19"/>
  <edge from="F19" to="G01" id="F19toG01"/>
  <edge from="G01" to="G02" id="G01toG02"/>
  <edge from="G02" to="H01" id="G02toH01"/>
  <edge from="H01" to="H02" id="H01toH02"/>
  <edge from="H02" to="H03" id="H02toH03"/>
  <edge from="H03" to="H04" id="H03toH04"/>
  <edge from="H04" to="H05" id="H04toH05"/>
  <edge from="H05" to="H06" id="H05toH06"/>
  <edge from="H06" to="H07" id="H06toH07"/>
  <edge from="H07" to="H08" id="H07toH08"/>
  <edge from="H08" to="H09" id="H08toH09"/>
  <edge from="H09" to="H10" id="H09toH10"/>
  <edge from="H10" to="H11" id="H10toH11"/>
  <edge from="H11" to="H12" id="H11toH12"/>
  <edge from="H12" to="H13" id="H12toH13"/>
  <edge from="H13" to="H14" id="H13toH14"/>
  <edge from="H14" to="H15" id="H14toH15"/>
  <edge from="H15" to="H16" id="H15toH16"/>
  <edge from="H16" to="H17" id="H16toH17"/>
  <edge from="H17" to="H18" id="H17toH18"/>
  <edge from="H18" to="H19" id="H18toH19"/>
  <edge from="H19" to="H20" id="H19toH20"/>
  <edge from="H20" to="H21" id="H20toH21"/>
  <edge from="H21" to="H22" id="H21toH22"/>
  <edge from="H22" to="H23" id="H22toH23"/>
  <edge from="H23" to="H24" id="H23toH24"/>
  <edge from="H24" to="H25" id="H24toH25"/>
  <edge from="H25" to="H26" id="H25toH26"/>
  <edge from="H26" to="H27" id="H26toH27"/>
  <edge from="H27" to="H28" id="H27toH28"/>
  <edge from="H28" to="H29" id="H28toH29"/>
  <edge from="H29" to="H30" id="H29toH30"/>
  <edge from="H30" to="H31" id="H30toH31"/>
  <edge from="H31" to="H32" id="H31toH32"/>
  <edge from="H32" to="H33" id="H32toH33"/>
  <edge from="H33" to="H34" id="H33toH34"/>
  <edge from="H34" to="H35" id="H34toH35"/>
  <edge from="H35" to="H36" id="H35toH36"/>
  <edge from="H36" to="H37" id="H36toH37"/>
  <edge from="H37" to="H38" id="H37toH38"/>
  <edge from="H38" to="H39" id="H38toH39"/>
  <edge from="H39" to="H40" id="H39toH40"/>
  <edge from="H40" to="H41" id="H40toH41"/>
  <edge from="H41" to="H42" id="H41toH42"/>
  <edge from="H42" to="H43" id="H42toH43"/>
  <edge from="H43" to="H44" id="H43toH44"/>
  <edge from="H44" to="H45" id="H44toH45"/>
  <edge from="H45" to="H46" id="H45toH46"/>
  <edge from="H46" to="H47" id="H46toH47"/>
  <edge from="H47" to="H48" id="H47toH48"/>
  <edge from="H48" to="H49" id="H48toH49"/>
  <edge from="H49" to="H50" id="H49toH50"/>
  <edge from="H50" to="H51" id="H50toH51"/>
  <edge from="H51" to="H52" id="H51toH52"/>
  <edge from="H52" to="H53" id="H52toH53"/>
  <edge from="H53" to="H54" id="H53toH54"/>
  <edge from="H54" to="H55" id="H54toH55"/>
  <edge from="H55" to="H56" id="H55toH56"/>
  <edge from="H56" to="H57" id="H56toH57"/>
  <edge from="H57" to="H58" id="H57toH58"/>
  <edge from="H58" to="H59" id="H58toH59"/>
  <edge from="H59" to="I01" id="H59toI01"/>
  <edge from="I01" to="I02" id="I01toI02"/>
  <edge from="I02" to="J01" id="I02toJ01"/>
  <edge from="J01" to="J02" id="J01toJ02"/>
  <edge from="J02" to="J03" id="J02toJ03"/>
  <edge from="J03" to="J04" id="J03toJ04"/>
  <edge from="J04" to="J05" id="J04toJ05"/>
  <edge from="J05" to="J06" id="J05toJ06"/>
  <edge from="J06" to="J07" id="J06toJ07"/>
  <edge from="J07" to="J08" id="J07toJ08"/>
  <edge from="J08" to="J09" id="J08toJ09"/>
  <edge from="J09" to="J10" id="J09toJ10"/>
  <edge from="J10" to="J11" id="J10toJ11"/>
  <edge from="J11" to="J12" id="J11toJ12"/>
  <edge from="J12" to="J13" id="J12toJ13"/>
  <edge from="J13" to="J14" id="J13toJ14"/>
  <edge from="J14" to="J15" id="J14toJ15"/>
  <edge from="J15" to="J16" id="J15toJ16"/>
  <edge from="J16" to="J17" id="J16toJ17"/>
  <edge from="J17" to="J18" id="J17toJ18"/>
  <edge from="J18" to="J19" id="J18toJ19"/>
  <edge from="J19" to="J20" id="J19toJ20"/>
  <edge from="J20" to="J21" id="J20toJ21"/>
  <edge from="J21" to="J22" id="J21toJ22"/>
  <edge from="J22" to="J23" id="J22toJ23"/>
  <edge from="J23" to="J24" id="J23toJ24"/>
  <edge from="J24" to="J25" id="J24toJ25"/>
  <edge from="J25" to="J26" id="J25toJ26"/>
  <edge from="J26" to="J27" id="J26toJ27"/>
  <edge from="J27" to="J28" id="J27toJ28"/>
  <edge from="J28" to="J29" id="J28toJ29"/>
  <edge from="J29" to="J30" id="J29toJ30"/>
  <edge from="J30" to="J31" id="J30toJ31"/>
  <edge from="J31" to="J32" id="J31toJ32"/>
  <edge from="J32" to="J33" id="J32toJ33"/>
  <edge from="J33" to="J34" id="J33toJ34"/>
  <edge from="J34" to="J35" id="J34toJ35"/>
  <edge from="J35" to="J36" id="J35toJ36"/>
  <edge from="J36" to="J37" id="J36toJ37"/>
  <edge from="J37" to="J38" id="J37toJ38"/>
  <edge from="J38" to="J39" id="J38toJ39"/>
  <edge from="J39" to="J40" id="J39toJ40"/>
  <edge from="J40" to="J41" id="J40toJ41"/>
  <edge from="J41" to="J42" id="J41toJ42"/>
  <edge from="J42" to="J43" id="J42toJ43"/>
  <edge from="J43" to="J44" id="J43toJ44"/>
  <edge from="J44" to="J45" id="J44toJ45"/>
  <edge from="J45" to="J46" id="J45toJ46"/>
  <edge from="J46" to="J47" id="J46toJ47"/>
  <edge from="J47" to="J48" id="J47toJ48"/>
  <edge from="J48" to="J49" id="J48toJ49"/>
  <edge from="J49" to="J50" id="J49toJ50"/>
  <edge from="J50" to="J51" id="J50toJ51"/>
  <edge from="J51" to="J52" id="J51toJ52"/>
  <edge from="J52" to="J53" id="J52toJ53"/>
  <edge from="J53" to="J54" id="J53toJ54"/>
  <edge from="J54" to="J55" id="J54toJ55"/>
  <edge from="J55" to="J56" id="J55toJ56"/>
  <edge from="J56" to="J57" id="J56toJ57"/>
  <edge from="J57" to="J58" id="J57toJ58"/>
  <edge from="J58" to="J59" id="J58toJ59"/>
  <edge from="J59" to="K01" id="J59toK01"/>
  <edge from="K01" to="K02" id="K01toK02"/>
  <edge from="K02" to="L01" id="K02toL01"/>
  <edge from="L01" to="L02" id="L01toL02"/>
  <edge from="L02" to="L03" id="L02toL03"/>
  <edge from="L03" to="L04" id="L03toL04"/>
  <edge from="L04" to="L05" id="L04toL05"/>
  <edge from="L05" to="L06" id="L05toL06"/>
  <edge from="L06" to="L07" id="L06toL07"/>
  <edge from="L07" to="L08" id="L07toL08"/>
  <edge from="L08" to="L09" id="L08toL09"/>
  <edge from="L09" to="L10" id="L09toL10"/>
  <edge from="L10" to="L11" id="L10toL11"/>
  <edge from="L11" to="L12" id="L11toL12"/>
  <edge from="L12" to="L13" id="L12toL13"/>
  <edge from="L13" to="L14" id="L13toL14"/>
  <edge from="L14" to="L15" id="L14toL15"/>
  <edge from="L15" to="L16" id="L15toL16"/>
  <edge from="L16" to="L17" id="L16toL17"/>
  <edge from="L17" to="L18" id="L17toL18"/>
  <edge from="L18" to="L19" id="L18toL19"/>
  <edge from="L19" to="M01" id="L19toM01"/>
  <edge from="M01" to="M02" id="M01toM02"/>
  <edge from="M02" to="N01" id="M02toN01"/>
  <edge from="N01" to="N02" id="N01toN02"/>
  <edge from="N02" to="N03" id="N02toN03"/>
  <edge from="N03" to="N04" id="N03toN04"/>
  <edge from="N04" to="N05" id="N04toN05"/>
  <edge from="N05" to="N06" id="N05toN06"/>
  <edge from="N06" to="N07" id="N06toN07"/>
  <edge from="N07" to="N08" id="N07toN08"/>
  <edge from="N08" to="N09" id="N08toN09"/>
  <edge from="N09" to="N10" id="N09toN10"/>
  <edge from="N10" to="N11" id="N10toN11"/>
  <edge from="N11" to="N12" id="N11toN12"/>
  <edge from="N12" to="N13" id="N12toN13"/>
  <edge from="N13" to="N14" id="N13toN14"/>
  <edge from="N14" to="N15" id="N14toN15"/>
  <edge from="N15" to="N16" id="N15toN16"/>
  <edge from="N16" to="N17" id="N16toN17"/>
  <edge from="N17" to="N18" id="N17toN18"/>
  <edge from="N18" to="N19" id="N18toN19"/>
  <edge from="N19" to="O01" id="N19toO01"/>
  <edge from="O01" to="O02" id="O01toO02"/>
  <edge from="O02" to="P01" id="O02toP01"/>
  <edge from="P01" to="P02" id="P01toP02"/>
  <edge from="P02" to="P03" id="P02toP03"/>
  <edge from="P03" to="P04" id="P03toP04"/>
  <edge from="P04" to="P05" id="P04toP05"/>
  <edge from="P05" to="P06" id="P05toP06"/>
  <edge from="P06" to="P07" id="P06toP07"/>
  <edge from="P07" to="P08" id="P07toP08"/>
  <edge from="P08" to="P09" id="P08toP09"/>
  <edge from="P09" to="P10" id="P09toP10"/>
  <edge from="P10" to="P11" id="P10toP11"/>
  <edge from="P11" to="P12" id="P11toP12"/>
  <edge from="P12" to="P13" id="P12toP13"/>
  <edge from="P13" to="P14" id="P13toP14"/>
  <edge from="P14" to="P15" id="P14toP15"/>
  <edge from="P15" to="P16" id="P15toP16"/>
  <edge from="P16" to="P17" id="P16toP17"/>
  <edge from="P17" to="P18" id="P17toP18"/>
  <edge from="P18" to="P19" id="P18toP19"/>
  <edge from="P19" to="A01" id="P19toA01"/>
  <edge from="P19" to="P18" id="P19toP18"/>
  <edge from="P18" to="P17" id="P18toP17"/>
  <edge from="P17" to="P16" id="P17toP16"/>
  <edge from="P16" to="P15" id="P16toP15"/>
  <edge from="P15" to="P14" id="P15toP14"/>
  <edge from="P14" to="P13" id="P14toP13"/>
  <edge from="P13" to="P12" id="P13toP12"/>
  <edge from="P12" to="P11" id="P12toP11"/>
  <edge from="P11" to="P10" id="P11toP10"/>
  <edge from="P10" to="P09" id="P10toP09"/>
  <edge from="P09" to="P08" id="P09toP08"/>
  <edge from="P08" to="P07" id="P08toP07"/>
  <edge from="P07" to="P06" id="P07toP06"/>
  <edge from="P06" to="P05" id="P06toP05"/>
  <edge from="P05" to="P04" id="P05toP04"/>
  <edge from="P04" to="P03" id="P04toP03"/>
  <edge from="P03" to="P02" id="P03toP02"/>
  <edge from="P02" to="P01" id="P02toP01"/>
  <edge from="P01" to="O02" id="P01toO02"/>
  <edge from="O02" to="O01" id="O02toO01"/>
  <edge from="O01" to="N19" id="O01toN19"/>
  <edge from="N19" to="N18" id="N19toN18"/>
  <edge from="N18" to="N17" id="N18toN17"/>
  <edge from="N17" to="N16" id="N17toN16"/>
  <edge from="N16" to="N15" id="N16toN15"/>
  <edge from="N15" to="N14" id="N15toN14"/>
  <edge from="N14" to="N13" id="N14toN13"/>
  <edge from="N13" to="N12" id="N13toN12"/>
  <edge from="N12" to="N11" id="N12toN11"/>
  <edge from="N11" to="N10" id="N11toN10"/>
  <edge from="N10" to="N09" id="N10toN09"/>
  <edge from="N09" to="N08" id="N09toN08"/>
  <edge from="N08" to="N07" id="N08toN07"/>
  <edge from="N07" to="N06" id="N07toN06"/>
  <edge from="N06" to="N05" id="N06toN05"/>
  <edge from="N05" to="N04" id="N05toN04"/>
  <edge from="N04" to="N03" id="N04toN03"/>
  <edge from="N03" to="N02" id="N03toN02"/>
  <edge from="N02" to="N01" id="N02toN01"/>
  <edge from="N01" to="M02" id="N01toM02"/>
  <edge from="M02" to="M01" id="M02toM01"/>
  <edge from="M01" to="L19" id="M01toL19"/>
  <edge from="L19" to="L18" id="L19toL18"/>
  <edge from="L18" to="L17" id="L18toL17"/>
  <edge from="L17" to="L16" id="L17toL16"/>
  <edge from="L16" to="L15" id="L16toL15"/>
  <edge from="L15" to="L14" id="L15toL14"/>
  <edge from="L14" to="L13" id="L14toL13"/>
  <edge from="L13" to="L12" id="L13toL12"/>
  <edge from="L12" to="L11" id="L12toL11"/>
  <edge from="L11" to="L10" id="L11toL10"/>
  <edge from="L10" to="L09" id="L10toL09"/>
  <edge from="L09" to="L08" id="L09toL08"/>
  <edge from="L08" to="L07" id="L08toL07"/>
  <edge from="L07" to="L06" id="L07toL06"/>
  <edge from="L06" to="L05" id="L06toL05"/>
  <edge from="L05" to="L04" id="L05toL04"/>
  <edge from="L04" to="L03" id="L04toL03"/>
  <edge from="L03" to="L02" id="L03toL02"/>
  <edge from="L02" to="L01" id="L02toL01"/>
  <edge from="L01" to="K02" id="L01toK02"/>
  <edge from="K02" to="K01" id="K02toK01"/>
  <edge from="K01" to="J59" id="K01toJ59"/>
  <edge from="J59" to="J58" id="J59toJ58"/>
  <edge from="J58" to="J57" id="J58toJ57"/>
  <edge from="J57" to="J56" id="J57toJ56"/>
  <edge from="J56" to="J55" id="J56toJ55"/>
  <edge from="J55" to="J54" id="J55toJ54"/>
  <edge from="J54" to="J53" id="J54toJ53"/>
  <edge from="J53" to="J52" id="J53toJ52"/>
  <edge from="J52" to="J51" id="J52toJ51"/>
  <edge from="J51" to="J50" id="J51toJ50"/>
  <edge from="J50" to="J49" id="J50toJ49"/>
  <edge from="J49" to="J48" id="J49toJ48"/>
  <edge from="J48" to="J47" id="J48toJ47"/>
  <edge from="J47" to="J46" id="J47toJ46"/>
  <edge from="J46" to="J45" id="J46toJ45"/>
  <edge from="J45" to="J44" id="J45toJ44"/>
  <edge from="J44" to="J43" id="J44toJ43"/>
  <edge from="J43" to="J42" id="J43toJ42"/>
  <edge from="J42" to="J41" id="J42toJ41"/>
  <edge from="J41" to="J40" id="J41toJ40"/>
  <edge from="J40" to="J39" id="J40toJ39"/>
  <edge from="J39" to="J38" id="J39toJ38"/>
  <edge from="J38" to="J37" id="J38toJ37"/>
  <edge from="J37" to="J36" id="J37toJ36"/>
  <edge from="J36" to="J35" id="J36toJ35"/>
  <edge from="J35" to="J34" id="J35toJ34"/>
  <edge from="J34" to="J33" id="J34toJ33"/>
  <edge from="J33" to="J32" id="J33toJ32"/>
  <edge from="J32" to="J31" id="J32toJ31"/>
  <edge from="J31" to="J30" id="J31toJ30"/>
  <edge from="J30" to="J29" id="J30toJ29"/>
  <edge from="J29" to="J28" id="J29toJ28"/>
  <edge from="J28" to="J27" id="J28toJ27"/>
  <edge from="J27" to="J26" id="J27toJ26"/>
  <edge from="J26" to="J25" id="J26toJ25"/>
  <edge from="J25" to="J24" id="J25toJ24"/>
  <edge from="J24" to="J23" id="J24toJ23"/>
  <edge from="J23" to="J22" id="J23toJ22"/>
  <edge from="J22" to="J21" id="J22toJ21"/>
  <edge from="J21" to="J20" id="J21toJ20"/>
  <edge from="J20" to="J19" id="J20toJ19"/>
  <edge from="J19" to="J18" id="J19toJ18"/>
  <edge from="J18" to="J17" id="J18toJ17"/>
  <edge from="J17" to="J16" id="J17toJ16"/>
  <edge from="J16" to="J15" id="J16toJ15"/>
  <edge from="J15" to="J14" id="J15toJ14"/>
  <edge from="J14" to="J13" id="J14toJ13"/>
  <edge from="J13" to="J12" id="J13toJ12"/>
  <edge from="J12" to="J11" id="J12toJ11"/>
  <edge from="J11" to="J10" id="J11toJ10"/>
  <edge from="J10" to="J09" id="J10toJ09"/>
  <edge from="J09" to="J08" id="J09toJ08"/>
  <edge from="J08" to="J07" id="J08toJ07"/>
  <edge from="J07" to="J06" id="J07toJ06"/>
  <edge from="J06" to="J05" id="J06toJ05"/>
  <edge from="J05" to="J04" id="J05toJ04"/>
  <edge from="J04" to="J03" id="J04toJ03"/>
  <edge from="J03" to="J02" id="J03toJ02"/>
  <edge from="J02" to="J01" id="J02toJ01"/>
  <edge from="J01" to="I02" id="J01toI02"/>
  <edge from="I02" to="I01" id="I02toI01"/>
  <edge from="I01" to="H59" id="I01toH59"/>
  <edge from="H59" to="H58" id="H59toH58"/>
  <edge from="H58" to="H57" id="H58toH57"/>
  <edge from="H57" to="H56" id="H57toH56"/>
  <edge from="H56" to="H55" id="H56toH55"/>
  <edge from="H55" to="H54" id="H55toH54"/>
  <edge from="H54" to="H53" id="H54toH53"/>
  <edge from="H53" to="H52" id="H53toH52"/>
  <edge from="H52" to="H51" id="H52toH51"/>
  <edge from="H51" to="H50" id="H51toH50"/>
  <edge from="H50" to="H49" id="H50toH49"/>
  <edge from="H49" to="H48" id="H49toH48"/>
  <edge from="H48" to="H47" id="H48toH47"/>
  <edge from="H47" to="H46" id="H47toH46"/>
  <edge from="H46" to="H45" id="H46toH45"/>
  <edge from="H45" to="H44" id="H45toH44"/>
  <edge from="H44" to="H43" id="H44toH43"/>
  <edge from="H43" to="H42" id="H43toH42"/>
  <edge from="H42" to="H41" id="H42toH41"/>
  <edge from="H41" to="H40" id="H41toH40"/>
  <edge from="H40" to="H39" id="H40toH39"/>
  <edge from="H39" to="H38" id="H39toH38"/>
  <edge from="H38" to="H37" id="H38toH37"/>
  <edge from="H37" to="H36" id="H37toH36"/>
  <edge from="H36" to="H35" id="H36toH35"/>
  <edge from="H35" to="H34" id="H35toH34"/>
  <edge from="H34" to="H33" id="H34toH33"/>
  <edge from="H33" to="H32" id="H33toH32"/>
  <edge from="H32" to="H31" id="H32toH31"/>
  <edge from="H31" to="H30" id="H31toH30"/>
  <edge from="H30" to="H29" id="H30toH29"/>
  <edge from="H29" to="H28" id="H29toH28"/>
  <edge from="H28" to="H27" id="H28toH27"/>
  <edge from="H27" to="H26" id="H27toH26"/>
  <edge from="H26" to="H25" id="H26toH25"/>
  <edge from="H25" to="H24" id="H25toH24"/>
  <edge from="H24" to="H23" id="H24toH23"/>
  <edge from="H23" to="H22" id="H23toH22"/>
  <edge from="H22" to="H21" id="H22toH21"/>
  <edge from="H21" to="H20" id="H21toH20"/>
  <edge from="H20" to="H19" id="H20toH19"/>
  <edge from="H19" to="H18" id="H19toH18"/>
  <edge from="H18" to="H17" id="H18toH17"/>
  <edge from="H17" to="H16" id="H17toH16"/>
  <edge from="H16" to="H15" id="H16toH15"/>
  <edge from="H15" to="H14" id="H15toH14"/>
  <edge from="H14" to="H13" id="H14toH13"/>
  <edge from="H13" to="H12" id="H13toH12"/>
  <edge from="H12" to="H11" id="H12toH11"/>
  <edge from="H11" to="H10" id="H11toH10"/>
  <edge from="H10" to="H09" id="H10toH09"/>
  <edge from="H09" to="H08" id="H09toH08"/>
  <edge from="H08" to="H07" id="H08toH07"/>
  <edge from="H07" to="H06" id="H07toH06"/>
  <edge from="H06" to="H05" id="H06toH05"/>
  <edge from="H05" to="H04" id="H05toH04"/>
  <edge from="H04" to="H03" id="H04toH03"/>
  <edge from="H03" to="H02" id="H03toH02"/>
  <edge from="H02" to="H01" id="H02toH01"/>
  <edge from="H01" to="G02" id="H01toG02"/>
  <edge from="G02" to="G01" id="G02toG01"/>
  <edge from="G01" to="F19" id="G01toF19"/>
  <edge from="F19" to="F18" id="F19toF18"/>
  <edge from="F18" to="F17" id="F18toF17"/>
  <edge from="F17" to="F16" id="F17toF16"/>
  <edge from="F16" to="F15" id="F16toF15"/>
  <edge from="F15" to="F14" id="F15toF14"/>
  <edge from="F14" to="F13" id="F14toF13"/>
  <edge from="F13" to="F12" id="F13toF12"/>
  <edge from="F12" to="F11" id="F12toF11"/>
  <edge from="F11" to="F10" id="F11toF10"/>
  <edge from="F10" to="F09" id="F10toF09"/>
  <edge from="F09" to="F08" id="F09toF08"/>
  <edge from="F08" to="F07" id="F08toF07"/>
  <edge from="F07" to="F06" id="F07toF06"/>
  <edge from="F06" to="F05" id="F06toF05"/>
  <edge from="F05" to="F04" id="F05toF04"/>
  <edge from="F04" to="F03" id="F04toF03"/>
  <edge from="F03" to="F02" id="F03toF02"/>
  <edge from="F02" to="F01" id="F02toF01"/>
  <edge from="F01" to="E02" id="F01toE02"/>
  <edge from="E02" to="E01" id="E02toE01"/>
  <edge from="E01" to="D19" id="E01toD19"/>
  <edge from="D19" to="D18" id="D19toD18"/>
  <edge from="D18" to="D17" id="D18toD17"/>
  <edge from="D17" to="D16" id="D17toD16"/>
  <edge from="D16" to="D15" id="D16toD15"/>
  <edge from="D15" to="D14" id="D15toD14"/>
  <edge from="D14" to="D13" id="D14toD13"/>
  <edge from="D13" to="D12" id="D13toD12"/>
  <edge from="D12" to="D11" id="D12toD11"/>
  <edge from="D11" to="D10" id="D11toD10"/>
  <edge from="D10" to="D09" id="D10toD09"/>
  <edge from="D09" to="D08" id="D09toD08"/>
  <edge from="D08" to="D07" id="D08toD07"/>
  <edge from="D07" to="D06" id="D07toD06"/>
  <edge from="D06" to="D05" id="D06toD05"/>
  <edge from="D05" to="D04" id="D05toD04"/>
  <edge from="D04" to="D03" id="D04toD03"/>
  <edge from="D03" to="D02" id="D03toD02"/>
  <edge from="D02" to="D01" id="D02toD01"/>
  <edge from="D01" to="C02" id="D01toC02"/>
  <edge from="C02" to="C01" id="C02toC01"/>
  <edge from="C01" to="B19" id="C01toB19"/>
  <edge from="B19" to="B18" id="B19toB18"/>
  <edge from="B18" to="B17" id="B18toB17"/>
  <edge from="B17" to="B16" id="B17toB16"/>
  <edge from="B16" to="B15" id="B16toB15"/>
  <edge from="B15" to="B14" id="B15toB14"/>
  <edge from="B14" to="B13" id="B14toB13"/>
  <edge from="B13" to="B12" id="B13toB12"/>
  <edge from="B12" to="B11" id="B12toB11"/>
  <edge from="B11" to="B10" id="B11toB10"/>
  <edge from="B10" to="B09" id="B10toB09"/>
  <edge from="B09" to="B08" id="B09toB08"/>
  <edge from="B08" to="B07" id="B08toB07"/>
  <edge from="B07" to="B06" id="B07toB06"/>
  <edge from="B06" to="B05" id="B06toB05"/>
  <edge from="B05" to="B04" id="B05toB04"/>
  <edge from="B04" to="B03" id="B04toB03"/>
  <edge from="B03" to="B02" id="B03toB02"/>
  <edge from="B02" to="B01" id="B02toB01"/>
  <edge from="B01" to="A03" id="B01toA03"/>
  <edge from="A03" to="A02" id="A03toA02"/>
  <edge from="A02" to="A01" id="A02toA01"/>
  <edge from="A01" to="P19" id="A01toP19"/>
</edges>
